[Format]      =  4.0
[Frequency]   =  0
[Precision]   =  1e-008
[MinAngle]    =  30
[DoSmartMesh] =  1
[Depth]       =  1
[LengthUnits] =  centimeters
[ProblemType] =  planar
[Coordinates] =  cartesian
[ACSolver]    =  0
[PrevType]    =  0
[PrevSoln]    =  ""
[Comment]     =  "Add comments here."
[PointProps]   = 0
[BdryProps]   = 1
  <BeginBdry>
    <BdryName> = "Dirichlet"
    <BdryType> = 0
    <A_0> = 0
    <A_1> = 0
    <A_2> = 0
    <Phi> = 0
    <c0> = 0
    <c0i> = 0
    <c1> = 0
    <c1i> = 0
    <Mu_ssd> = 0
    <Sigma_ssd> = 0
    <innerangle> = 0
    <outerangle> = 0
  <EndBdry>
[BlockProps]  = 5
  <BeginBlock>
    <BlockName> = "Air"
    <Mu_x> = 1
    <Mu_y> = 1
    <H_c> = 0
    <H_cAngle> = 0
    <J_re> = 0
    <J_im> = 0
    <Sigma> = 0
    <d_lam> = 0
    <Phi_h> = 0
    <Phi_hx> = 0
    <Phi_hy> = 0
    <LamType> = 0
    <LamFill> = 1
    <NStrands> = 0
    <WireD> = 0
    <BHPoints> = 0
  <EndBlock>
  <BeginBlock>
    <BlockName> = "0.2mm"
    <Mu_x> = 1
    <Mu_y> = 1
    <H_c> = 0
    <H_cAngle> = 0
    <J_re> = 0
    <J_im> = 0
    <Sigma> = 58
    <d_lam> = 0
    <Phi_h> = 0
    <Phi_hx> = 0
    <Phi_hy> = 0
    <LamType> = 3
    <LamFill> = 1
    <NStrands> = 1
    <WireD> = 0.20000000000000001
    <BHPoints> = 0
  <EndBlock>
  <BeginBlock>
    <BlockName> = "Pure Iron"
    <Mu_x> = 14872
    <Mu_y> = 14872
    <H_c> = 0
    <H_cAngle> = 0
    <J_re> = 0
    <J_im> = 0
    <Sigma> = 10.44
    <d_lam> = 0
    <Phi_h> = 0
    <Phi_hx> = 0
    <Phi_hy> = 0
    <LamType> = 0
    <LamFill> = 1
    <NStrands> = 0
    <WireD> = 0
    <BHPoints> = 21
      0	0
      0.22706499999999999	13.898400000000001
      0.45412999999999998	27.796700000000001
      0.68119499999999999	42.397399999999998
      0.90825999999999996	61.415700000000001
      1.13533	82.382400000000004
      1.36239	144.66900000000001
      1.58935	897.75999999999999
      1.81236	4581.7399999999998
      2.01004	17736.200000000001
      2.1331600000000002	41339.300000000003
      2.1999900000000001	68321.800000000003
      2.2547899999999998	95685.5
      2.2999299999999998	123355
      2.3425099999999999	151083
      2.3787600000000002	178954
      2.4150100000000001	206825
      2.45126	234696
      2.4874999999999998	262568
      2.5237500000000002	290439
      2.5600000000000001	318310
  <EndBlock>
  <BeginBlock>
    <BlockName> = "US Steel Type 2-S 0.024 inch thickness"
    <Mu_x> = 7400
    <Mu_y> = 7400
    <H_c> = 0
    <H_cAngle> = 0
    <J_re> = 0
    <J_im> = 0
    <Sigma> = 6.25
    <d_lam> = 0.60960000000000003
    <Phi_h> = 0
    <Phi_hx> = 0
    <Phi_hy> = 0
    <LamType> = 0
    <LamFill> = 0.97999999999999998
    <NStrands> = 0
    <WireD> = 0
    <BHPoints> = 66
      0	0
      0.0046779999999999999	9.1307220000000004
      0.0064009999999999996	10.474786
      0.008123	12.016997999999999
      0.0098449999999999996	13.786006
      0.014524	15.816824
      0.019202	18.147649000000001
      0.023879999999999998	20.822248999999999
      0.031514	23.893940000000001
      0.048016000000000003	27.429568
      0.067473000000000005	31.492000000000001
      0.10170999999999999	36.179115000000003
      0.15959000000000001	41.607095999999999
      0.26477000000000001	47.948627000000002
      0.39655000000000001	55.320686000000002
      0.53718999999999995	63.850599000000003
      0.67193000000000003	73.677623999999994
      0.79779999999999995	84.980812
      0.90297000000000005	97.936029000000005
      1.0052000000000001	112.84885300000001
      1.0955999999999999	129.96597299999999
      1.1800999999999999	149.637531
      1.2557	172.22162599999999
      1.3165	198.08431300000001
      1.3654999999999999	227.718974
      1.3997999999999999	261.61103100000003
      1.4252	300.436893
      1.4446000000000001	344.928674
      1.4611000000000001	395.961724
      1.4717	454.42731400000002
      1.4852000000000001	521.59868100000006
      1.4987999999999999	598.69336299999998
      1.5094000000000001	687.10396600000001
      1.52	788.557321
      1.5276000000000001	904.87575200000003
      1.5382	1038.486375
      1.5488	1191.832218
      1.5593999999999999	1367.8576479999999
      1.5729	1569.9844969999999
      1.5834999999999999	1801.7937549999999
      1.5941000000000001	2067.9009150000002
      1.6047	2373.239783
      1.6182000000000001	2724.0174019999999
      1.6288	3126.281665
      1.6424000000000001	3588.30863
      1.6589	4119.2497100000001
      1.6754	4728.7337829999997
      1.7083999999999999	6231.5548699999999
      1.7307999999999999	7155.3700669999998
      1.7532000000000001	8216.3768749999999
      1.7756000000000001	9433.9126250000008
      1.8009999999999999	10834.476624999999
      1.8292999999999999	12443.533675000001
      1.8575999999999999	14292.119000000001
      1.8889	16417.634024999999
      1.9232	18861.459050000001
      1.9574	21668.953249999999
      1.9916	24894.229325
      2.0287999999999999	28603.336599999999
      2.0659999999999998	32864.711725000001
      2.0973000000000002	37751.565999999999
      2.1255999999999999	43359.392424999998
      2.1480000000000001	49787.662875000002
      2.1675	57161.314025
      2.181	65610.852975000002
      2.1945999999999999	75308.167125000007
  <EndBlock>
  <BeginBlock>
    <BlockName> = "Supermalloy"
    <Mu_x> = 529095
    <Mu_y> = 529095
    <H_c> = 0
    <H_cAngle> = 0
    <J_re> = 0
    <J_im> = 0
    <Sigma> = 1.7
    <d_lam> = 0
    <Phi_h> = 0
    <Phi_hx> = 0
    <Phi_hy> = 0
    <LamType> = 0
    <LamFill> = 1
    <NStrands> = 0
    <WireD> = 0
    <BHPoints> = 12
      0	0
      0.45000099999999998	0.79577500000000001
      0.57500200000000001	1.59155
      0.62500299999999998	2.3873250000000001
      0.65000400000000003	3.1831
      0.680006	4.7746490000000001
      0.70000799999999996	6.3662000000000001
      0.72567300000000001	10.138479999999999
      0.744506	15.68595
      0.76002999999999998	23.873249999999999
      0.78046000000000004	48
      0.78510000000000002	79.577500000000001
  <EndBlock>
[CircuitProps]  = 2
  <BeginCircuit>
    <CircuitName> = "+50"
    <TotalAmps_re> = 50
    <TotalAmps_im> = 0
    <CircuitType> = 1
  <EndCircuit>
  <BeginCircuit>
    <CircuitName> = "-50"
    <TotalAmps_re> = -50
    <TotalAmps_im> = 0
    <CircuitType> = 1
  <EndCircuit>
[NumPoints] = 32
-0.20000000000000018	-0.375	0	0
-5.4500000000000011	-5.625	0	0
8.1999999999999993	-0.375	0	0
13.450000000000001	-5.625	0	0
-0.20000000000000018	10.125	0	0
8.1999999999999993	10.125	0	0
1.8999999999999999	10.125	0	0
6.0999999999999996	10.125	0	0
1.8999999999999999	1.7249999999999996	0	0
6.0999999999999996	1.7249999999999996	0	0
-5.4500000000000011	20.625	0	0
13.450000000000001	20.625	0	0
2.0049999999999999	1.8299999999999992	0	0
2.2150000000000003	1.8299999999999992	0	0
-0.30499999999999972	1.8299999999999992	0	0
-0.51499999999999968	1.8299999999999992	0	0
2.0049999999999999	10.02	0	0
2.2150000000000003	10.02	0	0
-0.30499999999999972	10.02	0	0
-0.51499999999999968	10.02	0	0
5.995000000000001	1.8299999999999992	0	0
5.7850000000000001	1.8299999999999992	0	0
8.3049999999999997	1.8299999999999992	0	0
8.5150000000000006	1.8299999999999992	0	0
5.995000000000001	10.02	0	0
5.7850000000000001	10.02	0	0
8.3049999999999997	10.02	0	0
8.5150000000000006	10.02	0	0
-0.20000000000000018	10.440000000000001	0	0
8.1999999999999993	10.440000000000001	0	0
-0.20000000000000018	10.965	0	0
8.1999999999999993	10.965	0	0
[NumSegments] = 32
10	1	-1	1	0	0
1	3	-1	1	0	0
3	11	-1	1	0	0
11	10	-1	1	0	0
4	0	-1	0	0	0
0	2	-1	0	0	0
2	5	-1	0	0	0
5	7	-1	0	0	0
9	7	-1	0	0	0
9	8	-1	0	0	0
6	8	-1	0	0	0
4	6	-1	0	0	0
15	14	-1	0	0	0
14	18	-1	0	0	0
18	19	-1	0	0	0
19	15	-1	0	0	0
12	13	-1	0	0	0
13	17	-1	0	0	0
17	16	-1	0	0	0
16	12	-1	0	0	0
24	25	-1	0	0	0
25	21	-1	0	0	0
21	20	-1	0	0	0
20	24	-1	0	0	0
26	27	-1	0	0	0
27	23	-1	0	0	0
23	22	-1	0	0	0
22	26	-1	0	0	0
30	28	-1	0	0	0
28	29	-1	0	0	0
29	31	-1	0	0	0
31	30	-1	0	0	0
[NumArcSegments] = 0
[NumHoles] = 0
[NumBlockLabels] = 7
-2.8999999999999999	4.7000000000000002	1	-1	0	0	0	1	0
0.90000000000000002	3.7000000000000002	4	-1	0	0	0	1	0
3.8999999999999999	10.5	3	-1	0	0	0	1	0
2.1899999999999999	7.5700000000000003	2	-1	2	0	0	200	0
8.4299999999999997	7.4000000000000004	2	-1	2	0	0	200	0
5.8700000000000001	9.5800000000000001	2	-1	2	0	0	200	0
-0.44	8.1199999999999992	2	-1	2	0	0	200	0
